[TITLE]
;;Project Title/Notes

[OPTIONS]
;;Option             Value
FLOW_UNITS           CFS
INFILTRATION         MODIFIED_GREEN_AMPT
FLOW_ROUTING         DYNWAVE
LINK_OFFSETS         DEPTH
MIN_SLOPE            0
ALLOW_PONDING        NO
SKIP_STEADY_STATE    NO

START_DATE           02/06/2018
START_TIME           00:00:00
REPORT_START_DATE    02/06/2018
REPORT_START_TIME    00:00:00
END_DATE             02/06/2018
END_TIME             16:00:00
SWEEP_START          01/01
SWEEP_END            12/31
DRY_DAYS             0
REPORT_STEP          00:15:00
WET_STEP             00:05:00
DRY_STEP             01:00:00
ROUTING_STEP         0:00:10 

INERTIAL_DAMPING     PARTIAL
NORMAL_FLOW_LIMITED  BOTH
FORCE_MAIN_EQUATION  H-W
VARIABLE_STEP        0.75
LENGTHENING_STEP     0
MIN_SURFAREA         12.557
MAX_TRIALS           8
HEAD_TOLERANCE       0.005
SYS_FLOW_TOL         5
LAT_FLOW_TOL         5
MINIMUM_STEP         0.5
THREADS              4

[FILES]
SAVE HOTSTART "mymodel.hsf"

[EVAPORATION]
;;Data Source    Parameters
;;-------------- ----------------
CONSTANT         0.0
DRY_ONLY         NO

[RAINGAGES]
;;Name           Format    Interval SCF      Source    
;;-------------- --------- ------ ------ ----------
Gage1            INTENSITY 1:00     1.0      TIMESERIES rainfall        

[SUBCATCHMENTS]
;;Name           Rain Gage        Outlet           Area     %Imperv  Width    %Slope   CurbLen  SnowPack        
;;-------------- ---------------- ---------------- -------- -------- -------- -------- -------- ----------------
S1               Gage1            J1               70       50       400      0.5      0                        

[SUBAREAS]
;;Subcatchment   N-Imperv   N-Perv     S-Imperv   S-Perv     PctZero    RouteTo    PctRouted 
;;-------------- ---------- ---------- ---------- ---------- ---------- ---------- ----------
S1               0.01       0.1        0.05       0.05       25         OUTLET    

[INFILTRATION]
;;Subcatchment   Suction    Ksat       IMD       
;;-------------- ---------- ---------- ----------
S1               3.5        0.5        0.26      

[JUNCTIONS]
;;Name           Elevation  MaxDepth   InitDepth  SurDepth   Aponded   
;;-------------- ---------- ---------- ---------- ---------- ----------
J1               96         4          0          0          0         
J2               90         5          0          0          0         
J3               88         2          0          0          0         

[OUTFALLS]
;;Name           Elevation  Type       Stage Data       Gated    Route To        
;;-------------- ---------- ---------- ---------------- -------- ----------------
Out1             87         FREE                        NO                       

[STORAGE]
;;Name           Elev.    MaxDepth   InitDepth  Shape      Curve Name/Params            N/A      Fevap    Psi      Ksat     IMD     
;;-------------- -------- ---------- ----------- ---------- ---------------------------- -------- --------          -------- --------
St1              90       5          0.75       FUNCTIONAL 0         0         40000    0        0       

[CONDUITS]
;;Name           From Node        To Node          Length     Roughness  InOffset   OutOffset  InitFlow   MaxFlow   
;;-------------- ---------------- ---------------- ---------- ---------- ---------- ---------- ---------- ----------
C1               J1               St1              400        0.01       0          5          0          0         
C2               J2               J3               400        0.01       0          0          0          0         
C3               J3               Out1             400        0.01       0          0          0          0         

[ORIFICES]
;;Name           From Node        To Node          Type         Offset     Qcoeff     Gated    CloseTime 
;;-------------- ---------------- ---------------- ------------ ---------- ---------- -------- ----------
R1               St1              J2               BOTTOM       0          0.65       NO       0         

[XSECTIONS]
;;Link           Shape        Geom1            Geom2      Geom3      Geom4      Barrels    Culvert   
;;-------------- ------------ ---------------- ---------- ---------- ---------- ---------- ----------
C1               CIRCULAR     2                0          0          0          1                    
C2               CIRCULAR     1                0          0          0          1                    
C3               CIRCULAR     1                0          0          0          1                    
R1               CIRCULAR     1                0          0          0

[TIMESERIES]
;;Name           Date       Time       Value     
;;-------------- ---------- ---------- ----------
rainfall         FILE "/home/jeff/Documents/research/Sadler4th_paper/swmm_models_and_scripts/data/simple_model_rainfall.csv"

[REPORT]
;;Reporting Options
INPUT      NO
CONTROLS   NO
SUBCATCHMENTS ALL
NODES ALL
LINKS ALL

[TAGS]

[MAP]
DIMENSIONS 0.000 0.000 10000.000 10000.000
Units      None

[COORDINATES]
;;Node           X-Coord            Y-Coord           
;;-------------- ------------------ ------------------
J1               155.709            5905.421          
J2               2751.524           5609.756          
J3               4457.901           5570.934          
Out1             5818.916           5490.196          
St1              2266.436           5720.877          

[VERTICES]
;;Link           X-Coord            Y-Coord           
;;-------------- ------------------ ------------------

[Polygons]
;;Subcatchment   X-Coord            Y-Coord           
;;-------------- ------------------ ------------------
S1               -536.332           5501.730          
S1               -1124.567          5167.243          
S1               -2474.048          5663.206          
S1               -2543.253          6678.201          
S1               -1770.473          7277.970          
S1               -778.547           7081.892          
S1               -213.379           6020.761          

[SYMBOLS]
;;Gage           X-Coord            Y-Coord           
;;-------------- ------------------ ------------------
Gage1            -1482.122          7427.912          


[PROFILES]
;;Name           Links     
;;-------------- ----------
"1               " C1 R1 C2 C3
[CONTROLS] 
RULE R0 
IF SIMULATION TIME < 0.250 
THEN ORIFICE R1 SETTING = 1.0 

RULE R1 
IF SIMULATION TIME < 0.500 
THEN ORIFICE R1 SETTING = 1.0 

RULE R2 
IF SIMULATION TIME < 0.750 
THEN ORIFICE R1 SETTING = 0.3 

RULE R3 
IF SIMULATION TIME < 1.000 
THEN ORIFICE R1 SETTING = 0.4 

RULE R4 
IF SIMULATION TIME < 1.250 
THEN ORIFICE R1 SETTING = 0.2 

RULE R5 
IF SIMULATION TIME < 1.500 
THEN ORIFICE R1 SETTING = 0.2 

RULE R6 
IF SIMULATION TIME < 1.750 
THEN ORIFICE R1 SETTING = 0.7 

RULE R7 
IF SIMULATION TIME < 2.000 
THEN ORIFICE R1 SETTING = 1.0 

RULE R8 
IF SIMULATION TIME < 2.250 
THEN ORIFICE R1 SETTING = 0.9 

RULE R9 
IF SIMULATION TIME < 2.500 
THEN ORIFICE R1 SETTING = 0.6 

RULE R10 
IF SIMULATION TIME < 2.750 
THEN ORIFICE R1 SETTING = 0.2 

RULE R11 
IF SIMULATION TIME < 3.000 
THEN ORIFICE R1 SETTING = 0.9 

RULE R12 
IF SIMULATION TIME < 3.250 
THEN ORIFICE R1 SETTING = 0.4 

RULE R13 
IF SIMULATION TIME < 3.500 
THEN ORIFICE R1 SETTING = 0.0 

RULE R14 
IF SIMULATION TIME < 3.750 
THEN ORIFICE R1 SETTING = 0.1 

RULE R15 
IF SIMULATION TIME < 4.000 
THEN ORIFICE R1 SETTING = 0.4 

RULE R16 
IF SIMULATION TIME < 4.250 
THEN ORIFICE R1 SETTING = 0.1 

RULE R17 
IF SIMULATION TIME < 4.500 
THEN ORIFICE R1 SETTING = 0.2 

RULE R18 
IF SIMULATION TIME < 4.750 
THEN ORIFICE R1 SETTING = 0.6 

RULE R19 
IF SIMULATION TIME < 5.000 
THEN ORIFICE R1 SETTING = 0.0 

RULE R20 
IF SIMULATION TIME < 5.250 
THEN ORIFICE R1 SETTING = 0.6 

RULE R21 
IF SIMULATION TIME < 5.500 
THEN ORIFICE R1 SETTING = 0.6 

RULE R22 
IF SIMULATION TIME < 5.750 
THEN ORIFICE R1 SETTING = 0.6 

RULE R23 
IF SIMULATION TIME < 6.000 
THEN ORIFICE R1 SETTING = 0.5 

RULE R24 
IF SIMULATION TIME < 6.250 
THEN ORIFICE R1 SETTING = 0.8 

RULE R25 
IF SIMULATION TIME < 6.500 
THEN ORIFICE R1 SETTING = 0.6 

RULE R26 
IF SIMULATION TIME < 6.750 
THEN ORIFICE R1 SETTING = 1.0 

RULE R27 
IF SIMULATION TIME < 7.000 
THEN ORIFICE R1 SETTING = 0.7 

RULE R28 
IF SIMULATION TIME < 7.250 
THEN ORIFICE R1 SETTING = 1.0 

RULE R29 
IF SIMULATION TIME < 7.500 
THEN ORIFICE R1 SETTING = 0.8 

RULE R30 
IF SIMULATION TIME < 7.750 
THEN ORIFICE R1 SETTING = 0.5 

RULE R31 
IF SIMULATION TIME < 8.000 
THEN ORIFICE R1 SETTING = 0.5 

RULE R32 
IF SIMULATION TIME < 8.250 
THEN ORIFICE R1 SETTING = 0.5 

RULE R33 
IF SIMULATION TIME < 8.500 
THEN ORIFICE R1 SETTING = 0.6 

RULE R34 
IF SIMULATION TIME < 8.750 
THEN ORIFICE R1 SETTING = 0.5 

RULE R35 
IF SIMULATION TIME < 9.000 
THEN ORIFICE R1 SETTING = 0.7 

RULE R36 
IF SIMULATION TIME < 9.250 
THEN ORIFICE R1 SETTING = 0.5 

RULE R37 
IF SIMULATION TIME < 9.500 
THEN ORIFICE R1 SETTING = 0.7 

RULE R38 
IF SIMULATION TIME < 9.750 
THEN ORIFICE R1 SETTING = 0.4 

RULE R39 
IF SIMULATION TIME < 10.000 
THEN ORIFICE R1 SETTING = 0.7 

RULE R40 
IF SIMULATION TIME < 10.250 
THEN ORIFICE R1 SETTING = 0.0 

RULE R41 
IF SIMULATION TIME < 10.500 
THEN ORIFICE R1 SETTING = 0.1 

RULE R42 
IF SIMULATION TIME < 10.750 
THEN ORIFICE R1 SETTING = 0.3 

RULE R43 
IF SIMULATION TIME < 11.000 
THEN ORIFICE R1 SETTING = 0.1 

RULE R44 
IF SIMULATION TIME < 11.250 
THEN ORIFICE R1 SETTING = 0.6 

RULE R45 
IF SIMULATION TIME < 11.500 
THEN ORIFICE R1 SETTING = 0.3 

RULE R46 
IF SIMULATION TIME < 11.750 
THEN ORIFICE R1 SETTING = 0.3 

RULE R47 
IF SIMULATION TIME < 12.000 
THEN ORIFICE R1 SETTING = 0.5 

RULE R48 
IF SIMULATION TIME < 12.250 
THEN ORIFICE R1 SETTING = 0.0 

RULE R49 
IF SIMULATION TIME < 12.500 
THEN ORIFICE R1 SETTING = 0.2 

RULE R50 
IF SIMULATION TIME < 12.750 
THEN ORIFICE R1 SETTING = 0.1 

RULE R51 
IF SIMULATION TIME < 13.000 
THEN ORIFICE R1 SETTING = 0.4 

RULE R52 
IF SIMULATION TIME < 13.250 
THEN ORIFICE R1 SETTING = 0.6 

RULE R53 
IF SIMULATION TIME < 13.500 
THEN ORIFICE R1 SETTING = 0.5 

RULE R54 
IF SIMULATION TIME < 13.750 
THEN ORIFICE R1 SETTING = 0.5 

RULE R55 
IF SIMULATION TIME < 14.000 
THEN ORIFICE R1 SETTING = 0.3 

RULE R56 
IF SIMULATION TIME < 14.250 
THEN ORIFICE R1 SETTING = 0.3 

RULE R57 
IF SIMULATION TIME < 14.500 
THEN ORIFICE R1 SETTING = 0.6 

RULE R58 
IF SIMULATION TIME < 14.750 
THEN ORIFICE R1 SETTING = 0.4 

RULE R59 
IF SIMULATION TIME < 15.000 
THEN ORIFICE R1 SETTING = 0.0 

RULE R60 
IF SIMULATION TIME < 15.250 
THEN ORIFICE R1 SETTING = 0.0 

RULE R61 
IF SIMULATION TIME < 15.500 
THEN ORIFICE R1 SETTING = 0.0 

RULE R62 
IF SIMULATION TIME < 15.750 
THEN ORIFICE R1 SETTING = 0.7 

