[TITLE]
;;Project Title/Notes

[OPTIONS]
;;Option             Value
FLOW_UNITS           CFS
INFILTRATION         MODIFIED_GREEN_AMPT
FLOW_ROUTING         DYNWAVE
LINK_OFFSETS         DEPTH
MIN_SLOPE            0
ALLOW_PONDING        NO
SKIP_STEADY_STATE    NO

START_DATE           02/06/2018
START_TIME           00:00:00
REPORT_START_DATE    02/06/2018
REPORT_START_TIME    00:00:00
END_DATE             02/06/2018
END_TIME             16:00:00
SWEEP_START          01/01
SWEEP_END            12/31
DRY_DAYS             0
REPORT_STEP          00:15:00
WET_STEP             00:05:00
DRY_STEP             01:00:00
ROUTING_STEP         0:00:10 

INERTIAL_DAMPING     PARTIAL
NORMAL_FLOW_LIMITED  BOTH
FORCE_MAIN_EQUATION  H-W
VARIABLE_STEP        0.75
LENGTHENING_STEP     0
MIN_SURFAREA         12.557
MAX_TRIALS           8
HEAD_TOLERANCE       0.005
SYS_FLOW_TOL         5
LAT_FLOW_TOL         5
MINIMUM_STEP         0.5
THREADS              4

[FILES]
;;Interfacing Files
SAVE HOTSTART "mymodel.hsf"

[EVAPORATION]
;;Data Source    Parameters
;;-------------- ----------------
CONSTANT         0.0
DRY_ONLY         NO

[RAINGAGES]
;;Name           Format    Interval SCF      Source    
;;-------------- --------- ------ ------ ----------
Gage1            INTENSITY 1:00     1.0      TIMESERIES rainfall1       
Gage2            INTENSITY 1:00     1.0      TIMESERIES rainfall2       

[SUBCATCHMENTS]
;;Name           Rain Gage        Outlet           Area     %Imperv  Width    %Slope   CurbLen  SnowPack        
;;-------------- ---------------- ---------------- -------- -------- -------- -------- -------- ----------------
S1               Gage1            J1               70       50       400      0.5      0                        
S2               Gage2            J4               70       50       400      0.5      0                        

[SUBAREAS]
;;Subcatchment   N-Imperv   N-Perv     S-Imperv   S-Perv     PctZero    RouteTo    PctRouted 
;;-------------- ---------- ---------- ---------- ---------- ---------- ---------- ----------
S1               0.01       0.1        0.05       0.05       25         OUTLET    
S2               0.01       0.1        0.05       0.05       25         OUTLET    

[INFILTRATION]
;;Subcatchment   Suction    Ksat       IMD       
;;-------------- ---------- ---------- ----------
S1               3.5        0.5        0.26      
S2               3.5        0.5        0.25      

[JUNCTIONS]
;;Name           Elevation  MaxDepth   InitDepth  SurDepth   Aponded   
;;-------------- ---------- ---------- ---------- ---------- ----------
J1               96         4          0          0          0         
J2               90         5          0          0          0         
J3               88         2          0          0          0         
J4               96         4          0          0          0         

[OUTFALLS]
;;Name           Elevation  Type       Stage Data       Gated    Route To        
;;-------------- ---------- ---------- ---------------- -------- ----------------
Out1             87         FREE                        NO                       

[STORAGE]
;;Name           Elev.    MaxDepth   InitDepth  Shape      Curve Name/Params            N/A      Fevap    Psi      Ksat     IMD     
;;-------------- -------- ---------- ----------- ---------- ---------------------------- -------- --------          -------- --------
St1              90       5          0.75       FUNCTIONAL 0         0         40000    0        0       
St2              90       5          0.75       FUNCTIONAL 0         0         40000    0        0       

[CONDUITS]
;;Name           From Node        To Node          Length     Roughness  InOffset   OutOffset  InitFlow   MaxFlow   
;;-------------- ---------------- ---------------- ---------- ---------- ---------- ---------- ---------- ----------
C1               J1               St1              400        0.01       0          5          0          0         
C2               J2               J3               400        0.01       0          0          0          0         
C3               J3               Out1             400        0.01       0          0          0          0         
C4               J4               St2              400        0.01       0          0          0          0         

[ORIFICES]
;;Name           From Node        To Node          Type         Offset     Qcoeff     Gated    CloseTime 
;;-------------- ---------------- ---------------- ------------ ---------- ---------- -------- ----------
R1               St1              J2               BOTTOM       0          0.65       NO       0         
R2               St2              J2               BOTTOM       0          0.65       NO       0         

[XSECTIONS]
;;Link           Shape        Geom1            Geom2      Geom3      Geom4      Barrels    Culvert   
;;-------------- ------------ ---------------- ---------- ---------- ---------- ---------- ----------
C1               CIRCULAR     2                0          0          0          1                    
C2               CIRCULAR     1                0          0          0          1                    
C3               CIRCULAR     1                0          0          0          1                    
C4               CIRCULAR     1                0          0          0          1                    
R1               CIRCULAR     1                0          0          0
R2               CIRCULAR     1                0          0          0

[TIMESERIES]
;;Name           Date       Time       Value     
;;-------------- ---------- ---------- ----------
rainfall1                   0:00       0         
rainfall1                   4:00       0.25      
rainfall1                   5:00       0.5       
rainfall1                   6:00       0.4       
rainfall1                   7:00       0.25      
rainfall1                   8:00       0.125     
rainfall1                   9:00       0         
;
rainfall2                   0:00       0         
rainfall2                   4:00       0         
rainfall2                   5:00       0.25      
rainfall2                   6:00       0.5       
rainfall2                   7:00       0.4       
rainfall2                   8:00       0.25      
rainfall2                   9:00       0.125     

[REPORT]
;;Reporting Options
INPUT      NO
CONTROLS   NO
SUBCATCHMENTS ALL
NODES ALL
LINKS ALL

[TAGS]

[MAP]
DIMENSIONS 0.000 0.000 10000.000 10000.000
Units      None

[COORDINATES]
;;Node           X-Coord            Y-Coord           
;;-------------- ------------------ ------------------
J1               155.709            5905.421          
J2               2751.524           5609.756          
J3               4457.901           5570.934          
J4               38.419             4291.987          
Out1             5818.916           5490.196          
St1              2266.436           5720.877          
St2              2211.855           4884.742          

[VERTICES]
;;Link           X-Coord            Y-Coord           
;;-------------- ------------------ ------------------

[Polygons]
;;Subcatchment   X-Coord            Y-Coord           
;;-------------- ------------------ ------------------
S1               -565.282           5428.152          
S1               -1153.517          5093.665          
S1               -2502.998          5589.628          
S1               -2572.203          6604.623          
S1               -1799.423          7204.392          
S1               -807.497           7008.314          
S1               -242.329           5947.183          
S2               -510.428           3446.762          
S2               -916.575           2579.583          
S2               -2914.380          2799.122          
S2               -2782.656          3644.347          
S2               -2727.772          4467.618          
S2               -1026.345          4522.503          

[SYMBOLS]
;;Gage           X-Coord            Y-Coord           
;;-------------- ------------------ ------------------
Gage1            -1482.122          7427.912          
Gage2            -2255.763          4840.834          


[PROFILES]
;;Name           Links     
;;-------------- ----------
"1               " C1 R1 C2 C3
